*SPEF "ieee 1481-1999"
*DESIGN "tiny_user_project"
*DATE "11:11:11 Fri 11 11, 1111"
*VENDOR "OpenRCX"
*PROGRAM "Parallel Extraction"
*VERSION "1.0"
*DESIGN_FLOW "NAME_SCOPE LOCAL" "PIN_CAP NONE"
*DIVIDER /
*DELIMITER :
*BUS_DELIMITER []
*T_UNIT 1 NS
*C_UNIT 1 PF
*R_UNIT 1 OHM
*L_UNIT 1 HENRY

*NAME_MAP
*1 io_in[0]
*2 io_in[10]
*3 io_in[11]
*4 io_in[12]
*5 io_in[13]
*6 io_in[14]
*7 io_in[15]
*8 io_in[16]
*9 io_in[17]
*10 io_in[18]
*11 io_in[19]
*12 io_in[1]
*13 io_in[20]
*14 io_in[21]
*15 io_in[22]
*16 io_in[23]
*17 io_in[24]
*18 io_in[25]
*19 io_in[26]
*20 io_in[27]
*21 io_in[28]
*22 io_in[29]
*23 io_in[2]
*24 io_in[30]
*25 io_in[31]
*26 io_in[32]
*27 io_in[33]
*28 io_in[34]
*29 io_in[35]
*30 io_in[36]
*31 io_in[37]
*32 io_in[3]
*33 io_in[4]
*34 io_in[5]
*35 io_in[6]
*36 io_in[7]
*37 io_in[8]
*38 io_in[9]
*39 net39
*40 net49
*41 net50
*42 net51
*43 net52
*44 net53
*45 net54
*46 net55
*47 net56
*48 net57
*49 net58
*50 net40
*51 net59
*52 net60
*53 net61
*54 net62
*55 net63
*56 net64
*57 net65
*58 net66
*59 net67
*60 net68
*61 net41
*62 net69
*63 net70
*64 net71
*65 net72
*66 net73
*67 net74
*68 net75
*69 net76
*70 net42
*71 net43
*72 net44
*73 net45
*74 net46
*75 net47
*76 net48
*77 net1
*78 net11
*79 net12
*80 net13
*81 net14
*82 net15
*83 net16
*84 net17
*85 net18
*86 net19
*87 net20
*88 net2
*89 net21
*90 net22
*91 net23
*92 net24
*93 net25
*94 net26
*95 net27
*96 net28
*97 net29
*98 net30
*99 net3
*100 net31
*101 net32
*102 net33
*103 net34
*104 net35
*105 net36
*106 net37
*107 net38
*108 net4
*109 net5
*110 net6
*111 net7
*112 net8
*113 net9
*114 net10
*115 FILLER_0_109
*116 FILLER_0_113
*117 FILLER_0_125
*118 FILLER_0_137
*119 FILLER_0_141
*120 FILLER_0_153
*121 FILLER_0_165
*122 FILLER_0_169
*123 FILLER_0_181
*124 FILLER_0_193
*125 FILLER_0_197
*126 FILLER_0_20
*127 FILLER_0_209
*128 FILLER_0_221
*129 FILLER_0_225
*130 FILLER_0_237
*131 FILLER_0_249
*132 FILLER_0_253
*133 FILLER_0_265
*134 FILLER_0_277
*135 FILLER_0_281
*136 FILLER_0_29
*137 FILLER_0_293
*138 FILLER_0_3
*139 FILLER_0_41
*140 FILLER_0_53
*141 FILLER_0_57
*142 FILLER_0_69
*143 FILLER_0_8
*144 FILLER_0_81
*145 FILLER_0_85
*146 FILLER_0_97
*147 FILLER_10_109
*148 FILLER_10_121
*149 FILLER_10_133
*150 FILLER_10_139
*151 FILLER_10_141
*152 FILLER_10_153
*153 FILLER_10_165
*154 FILLER_10_177
*155 FILLER_10_189
*156 FILLER_10_195
*157 FILLER_10_197
*158 FILLER_10_20
*159 FILLER_10_209
*160 FILLER_10_221
*161 FILLER_10_233
*162 FILLER_10_245
*163 FILLER_10_251
*164 FILLER_10_253
*165 FILLER_10_265
*166 FILLER_10_277
*167 FILLER_10_289
*168 FILLER_10_29
*169 FILLER_10_297
*170 FILLER_10_3
*171 FILLER_10_41
*172 FILLER_10_53
*173 FILLER_10_65
*174 FILLER_10_77
*175 FILLER_10_8
*176 FILLER_10_83
*177 FILLER_10_85
*178 FILLER_10_97
*179 FILLER_11_105
*180 FILLER_11_111
*181 FILLER_11_113
*182 FILLER_11_125
*183 FILLER_11_137
*184 FILLER_11_149
*185 FILLER_11_15
*186 FILLER_11_161
*187 FILLER_11_167
*188 FILLER_11_169
*189 FILLER_11_181
*190 FILLER_11_193
*191 FILLER_11_205
*192 FILLER_11_217
*193 FILLER_11_223
*194 FILLER_11_225
*195 FILLER_11_237
*196 FILLER_11_249
*197 FILLER_11_261
*198 FILLER_11_27
*199 FILLER_11_273
*200 FILLER_11_279
*201 FILLER_11_281
*202 FILLER_11_293
*203 FILLER_11_297
*204 FILLER_11_3
*205 FILLER_11_39
*206 FILLER_11_51
*207 FILLER_11_55
*208 FILLER_11_57
*209 FILLER_11_69
*210 FILLER_11_81
*211 FILLER_11_93
*212 FILLER_12_109
*213 FILLER_12_121
*214 FILLER_12_133
*215 FILLER_12_139
*216 FILLER_12_141
*217 FILLER_12_15
*218 FILLER_12_153
*219 FILLER_12_165
*220 FILLER_12_177
*221 FILLER_12_189
*222 FILLER_12_195
*223 FILLER_12_197
*224 FILLER_12_209
*225 FILLER_12_221
*226 FILLER_12_233
*227 FILLER_12_245
*228 FILLER_12_251
*229 FILLER_12_253
*230 FILLER_12_265
*231 FILLER_12_27
*232 FILLER_12_277
*233 FILLER_12_289
*234 FILLER_12_29
*235 FILLER_12_293
*236 FILLER_12_297
*237 FILLER_12_3
*238 FILLER_12_41
*239 FILLER_12_53
*240 FILLER_12_65
*241 FILLER_12_77
*242 FILLER_12_83
*243 FILLER_12_85
*244 FILLER_12_97
*245 FILLER_13_105
*246 FILLER_13_111
*247 FILLER_13_113
*248 FILLER_13_125
*249 FILLER_13_137
*250 FILLER_13_149
*251 FILLER_13_161
*252 FILLER_13_167
*253 FILLER_13_169
*254 FILLER_13_181
*255 FILLER_13_193
*256 FILLER_13_20
*257 FILLER_13_205
*258 FILLER_13_217
*259 FILLER_13_223
*260 FILLER_13_225
*261 FILLER_13_237
*262 FILLER_13_249
*263 FILLER_13_261
*264 FILLER_13_273
*265 FILLER_13_279
*266 FILLER_13_281
*267 FILLER_13_293
*268 FILLER_13_3
*269 FILLER_13_32
*270 FILLER_13_44
*271 FILLER_13_57
*272 FILLER_13_69
*273 FILLER_13_8
*274 FILLER_13_81
*275 FILLER_13_93
*276 FILLER_14_109
*277 FILLER_14_121
*278 FILLER_14_133
*279 FILLER_14_139
*280 FILLER_14_141
*281 FILLER_14_153
*282 FILLER_14_165
*283 FILLER_14_177
*284 FILLER_14_189
*285 FILLER_14_195
*286 FILLER_14_197
*287 FILLER_14_20
*288 FILLER_14_209
*289 FILLER_14_221
*290 FILLER_14_233
*291 FILLER_14_245
*292 FILLER_14_251
*293 FILLER_14_253
*294 FILLER_14_265
*295 FILLER_14_277
*296 FILLER_14_289
*297 FILLER_14_29
*298 FILLER_14_293
*299 FILLER_14_297
*300 FILLER_14_3
*301 FILLER_14_41
*302 FILLER_14_53
*303 FILLER_14_65
*304 FILLER_14_77
*305 FILLER_14_8
*306 FILLER_14_83
*307 FILLER_14_85
*308 FILLER_14_97
*309 FILLER_15_105
*310 FILLER_15_111
*311 FILLER_15_113
*312 FILLER_15_125
*313 FILLER_15_137
*314 FILLER_15_149
*315 FILLER_15_15
*316 FILLER_15_161
*317 FILLER_15_167
*318 FILLER_15_169
*319 FILLER_15_181
*320 FILLER_15_193
*321 FILLER_15_205
*322 FILLER_15_217
*323 FILLER_15_223
*324 FILLER_15_225
*325 FILLER_15_237
*326 FILLER_15_249
*327 FILLER_15_261
*328 FILLER_15_27
*329 FILLER_15_273
*330 FILLER_15_279
*331 FILLER_15_281
*332 FILLER_15_293
*333 FILLER_15_297
*334 FILLER_15_3
*335 FILLER_15_39
*336 FILLER_15_51
*337 FILLER_15_55
*338 FILLER_15_57
*339 FILLER_15_69
*340 FILLER_15_81
*341 FILLER_15_93
*342 FILLER_16_109
*343 FILLER_16_121
*344 FILLER_16_133
*345 FILLER_16_139
*346 FILLER_16_141
*347 FILLER_16_15
*348 FILLER_16_153
*349 FILLER_16_165
*350 FILLER_16_177
*351 FILLER_16_189
*352 FILLER_16_195
*353 FILLER_16_197
*354 FILLER_16_209
*355 FILLER_16_221
*356 FILLER_16_233
*357 FILLER_16_245
*358 FILLER_16_251
*359 FILLER_16_253
*360 FILLER_16_265
*361 FILLER_16_27
*362 FILLER_16_277
*363 FILLER_16_289
*364 FILLER_16_29
*365 FILLER_16_297
*366 FILLER_16_3
*367 FILLER_16_41
*368 FILLER_16_53
*369 FILLER_16_65
*370 FILLER_16_77
*371 FILLER_16_83
*372 FILLER_16_85
*373 FILLER_16_97
*374 FILLER_17_105
*375 FILLER_17_111
*376 FILLER_17_113
*377 FILLER_17_125
*378 FILLER_17_137
*379 FILLER_17_149
*380 FILLER_17_161
*381 FILLER_17_167
*382 FILLER_17_169
*383 FILLER_17_181
*384 FILLER_17_193
*385 FILLER_17_20
*386 FILLER_17_205
*387 FILLER_17_217
*388 FILLER_17_223
*389 FILLER_17_225
*390 FILLER_17_237
*391 FILLER_17_249
*392 FILLER_17_261
*393 FILLER_17_273
*394 FILLER_17_279
*395 FILLER_17_281
*396 FILLER_17_293
*397 FILLER_17_297
*398 FILLER_17_3
*399 FILLER_17_32
*400 FILLER_17_44
*401 FILLER_17_57
*402 FILLER_17_69
*403 FILLER_17_8
*404 FILLER_17_81
*405 FILLER_17_93
*406 FILLER_18_109
*407 FILLER_18_121
*408 FILLER_18_133
*409 FILLER_18_139
*410 FILLER_18_141
*411 FILLER_18_153
*412 FILLER_18_165
*413 FILLER_18_177
*414 FILLER_18_189
*415 FILLER_18_195
*416 FILLER_18_197
*417 FILLER_18_20
*418 FILLER_18_209
*419 FILLER_18_221
*420 FILLER_18_233
*421 FILLER_18_245
*422 FILLER_18_251
*423 FILLER_18_253
*424 FILLER_18_265
*425 FILLER_18_277
*426 FILLER_18_289
*427 FILLER_18_29
*428 FILLER_18_293
*429 FILLER_18_297
*430 FILLER_18_3
*431 FILLER_18_41
*432 FILLER_18_53
*433 FILLER_18_65
*434 FILLER_18_77
*435 FILLER_18_8
*436 FILLER_18_83
*437 FILLER_18_85
*438 FILLER_18_97
*439 FILLER_19_105
*440 FILLER_19_111
*441 FILLER_19_113
*442 FILLER_19_125
*443 FILLER_19_137
*444 FILLER_19_149
*445 FILLER_19_15
*446 FILLER_19_161
*447 FILLER_19_167
*448 FILLER_19_169
*449 FILLER_19_181
*450 FILLER_19_193
*451 FILLER_19_205
*452 FILLER_19_217
*453 FILLER_19_223
*454 FILLER_19_225
*455 FILLER_19_237
*456 FILLER_19_249
*457 FILLER_19_261
*458 FILLER_19_27
*459 FILLER_19_273
*460 FILLER_19_279
*461 FILLER_19_281
*462 FILLER_19_293
*463 FILLER_19_3
*464 FILLER_19_39
*465 FILLER_19_51
*466 FILLER_19_55
*467 FILLER_19_57
*468 FILLER_19_69
*469 FILLER_19_81
*470 FILLER_19_93
*471 FILLER_1_105
*472 FILLER_1_111
*473 FILLER_1_113
*474 FILLER_1_125
*475 FILLER_1_137
*476 FILLER_1_149
*477 FILLER_1_161
*478 FILLER_1_167
*479 FILLER_1_169
*480 FILLER_1_181
*481 FILLER_1_193
*482 FILLER_1_20
*483 FILLER_1_205
*484 FILLER_1_217
*485 FILLER_1_223
*486 FILLER_1_225
*487 FILLER_1_237
*488 FILLER_1_249
*489 FILLER_1_261
*490 FILLER_1_273
*491 FILLER_1_279
*492 FILLER_1_281
*493 FILLER_1_293
*494 FILLER_1_3
*495 FILLER_1_32
*496 FILLER_1_44
*497 FILLER_1_57
*498 FILLER_1_69
*499 FILLER_1_8
*500 FILLER_1_81
*501 FILLER_1_93
*502 FILLER_20_109
*503 FILLER_20_121
*504 FILLER_20_133
*505 FILLER_20_139
*506 FILLER_20_141
*507 FILLER_20_153
*508 FILLER_20_165
*509 FILLER_20_177
*510 FILLER_20_189
*511 FILLER_20_195
*512 FILLER_20_197
*513 FILLER_20_20
*514 FILLER_20_209
*515 FILLER_20_221
*516 FILLER_20_233
*517 FILLER_20_245
*518 FILLER_20_251
*519 FILLER_20_253
*520 FILLER_20_265
*521 FILLER_20_277
*522 FILLER_20_289
*523 FILLER_20_29
*524 FILLER_20_293
*525 FILLER_20_297
*526 FILLER_20_3
*527 FILLER_20_41
*528 FILLER_20_53
*529 FILLER_20_65
*530 FILLER_20_77
*531 FILLER_20_8
*532 FILLER_20_83
*533 FILLER_20_85
*534 FILLER_20_97
*535 FILLER_21_105
*536 FILLER_21_111
*537 FILLER_21_113
*538 FILLER_21_125
*539 FILLER_21_137
*540 FILLER_21_149
*541 FILLER_21_15
*542 FILLER_21_161
*543 FILLER_21_167
*544 FILLER_21_169
*545 FILLER_21_181
*546 FILLER_21_193
*547 FILLER_21_205
*548 FILLER_21_217
*549 FILLER_21_223
*550 FILLER_21_225
*551 FILLER_21_237
*552 FILLER_21_249
*553 FILLER_21_261
*554 FILLER_21_27
*555 FILLER_21_273
*556 FILLER_21_279
*557 FILLER_21_281
*558 FILLER_21_293
*559 FILLER_21_297
*560 FILLER_21_3
*561 FILLER_21_39
*562 FILLER_21_51
*563 FILLER_21_55
*564 FILLER_21_57
*565 FILLER_21_69
*566 FILLER_21_81
*567 FILLER_21_93
*568 FILLER_22_109
*569 FILLER_22_121
*570 FILLER_22_133
*571 FILLER_22_139
*572 FILLER_22_141
*573 FILLER_22_153
*574 FILLER_22_165
*575 FILLER_22_177
*576 FILLER_22_189
*577 FILLER_22_195
*578 FILLER_22_197
*579 FILLER_22_20
*580 FILLER_22_209
*581 FILLER_22_221
*582 FILLER_22_233
*583 FILLER_22_245
*584 FILLER_22_251
*585 FILLER_22_253
*586 FILLER_22_265
*587 FILLER_22_277
*588 FILLER_22_289
*589 FILLER_22_29
*590 FILLER_22_297
*591 FILLER_22_3
*592 FILLER_22_41
*593 FILLER_22_53
*594 FILLER_22_65
*595 FILLER_22_77
*596 FILLER_22_8
*597 FILLER_22_83
*598 FILLER_22_85
*599 FILLER_22_97
*600 FILLER_23_105
*601 FILLER_23_111
*602 FILLER_23_113
*603 FILLER_23_125
*604 FILLER_23_137
*605 FILLER_23_149
*606 FILLER_23_15
*607 FILLER_23_161
*608 FILLER_23_167
*609 FILLER_23_169
*610 FILLER_23_181
*611 FILLER_23_193
*612 FILLER_23_205
*613 FILLER_23_217
*614 FILLER_23_223
*615 FILLER_23_225
*616 FILLER_23_237
*617 FILLER_23_249
*618 FILLER_23_261
*619 FILLER_23_27
*620 FILLER_23_273
*621 FILLER_23_279
*622 FILLER_23_281
*623 FILLER_23_293
*624 FILLER_23_297
*625 FILLER_23_3
*626 FILLER_23_39
*627 FILLER_23_51
*628 FILLER_23_55
*629 FILLER_23_57
*630 FILLER_23_69
*631 FILLER_23_81
*632 FILLER_23_93
*633 FILLER_24_109
*634 FILLER_24_121
*635 FILLER_24_133
*636 FILLER_24_139
*637 FILLER_24_141
*638 FILLER_24_153
*639 FILLER_24_165
*640 FILLER_24_177
*641 FILLER_24_189
*642 FILLER_24_195
*643 FILLER_24_197
*644 FILLER_24_20
*645 FILLER_24_209
*646 FILLER_24_221
*647 FILLER_24_233
*648 FILLER_24_245
*649 FILLER_24_251
*650 FILLER_24_253
*651 FILLER_24_265
*652 FILLER_24_277
*653 FILLER_24_289
*654 FILLER_24_29
*655 FILLER_24_293
*656 FILLER_24_297
*657 FILLER_24_3
*658 FILLER_24_41
*659 FILLER_24_53
*660 FILLER_24_65
*661 FILLER_24_77
*662 FILLER_24_8
*663 FILLER_24_83
*664 FILLER_24_85
*665 FILLER_24_97
*666 FILLER_25_105
*667 FILLER_25_111
*668 FILLER_25_113
*669 FILLER_25_125
*670 FILLER_25_137
*671 FILLER_25_149
*672 FILLER_25_161
*673 FILLER_25_167
*674 FILLER_25_169
*675 FILLER_25_181
*676 FILLER_25_193
*677 FILLER_25_20
*678 FILLER_25_205
*679 FILLER_25_217
*680 FILLER_25_223
*681 FILLER_25_225
*682 FILLER_25_237
*683 FILLER_25_249
*684 FILLER_25_261
*685 FILLER_25_273
*686 FILLER_25_279
*687 FILLER_25_281
*688 FILLER_25_293
*689 FILLER_25_3
*690 FILLER_25_32
*691 FILLER_25_44
*692 FILLER_25_57
*693 FILLER_25_69
*694 FILLER_25_8
*695 FILLER_25_81
*696 FILLER_25_93
*697 FILLER_26_109
*698 FILLER_26_121
*699 FILLER_26_133
*700 FILLER_26_139
*701 FILLER_26_141
*702 FILLER_26_15
*703 FILLER_26_153
*704 FILLER_26_165
*705 FILLER_26_177
*706 FILLER_26_189
*707 FILLER_26_195
*708 FILLER_26_197
*709 FILLER_26_209
*710 FILLER_26_221
*711 FILLER_26_233
*712 FILLER_26_245
*713 FILLER_26_251
*714 FILLER_26_253
*715 FILLER_26_265
*716 FILLER_26_27
*717 FILLER_26_277
*718 FILLER_26_289
*719 FILLER_26_29
*720 FILLER_26_293
*721 FILLER_26_297
*722 FILLER_26_3
*723 FILLER_26_41
*724 FILLER_26_53
*725 FILLER_26_65
*726 FILLER_26_77
*727 FILLER_26_83
*728 FILLER_26_85
*729 FILLER_26_97
*730 FILLER_27_105
*731 FILLER_27_111
*732 FILLER_27_113
*733 FILLER_27_125
*734 FILLER_27_137
*735 FILLER_27_149
*736 FILLER_27_15
*737 FILLER_27_161
*738 FILLER_27_167
*739 FILLER_27_169
*740 FILLER_27_181
*741 FILLER_27_193
*742 FILLER_27_205
*743 FILLER_27_217
*744 FILLER_27_223
*745 FILLER_27_225
*746 FILLER_27_237
*747 FILLER_27_249
*748 FILLER_27_261
*749 FILLER_27_27
*750 FILLER_27_273
*751 FILLER_27_279
*752 FILLER_27_281
*753 FILLER_27_293
*754 FILLER_27_297
*755 FILLER_27_3
*756 FILLER_27_39
*757 FILLER_27_51
*758 FILLER_27_55
*759 FILLER_27_57
*760 FILLER_27_69
*761 FILLER_27_81
*762 FILLER_27_93
*763 FILLER_28_109
*764 FILLER_28_121
*765 FILLER_28_133
*766 FILLER_28_139
*767 FILLER_28_141
*768 FILLER_28_153
*769 FILLER_28_165
*770 FILLER_28_177
*771 FILLER_28_189
*772 FILLER_28_195
*773 FILLER_28_197
*774 FILLER_28_20
*775 FILLER_28_209
*776 FILLER_28_221
*777 FILLER_28_233
*778 FILLER_28_245
*779 FILLER_28_251
*780 FILLER_28_253
*781 FILLER_28_265
*782 FILLER_28_277
*783 FILLER_28_289
*784 FILLER_28_29
*785 FILLER_28_297
*786 FILLER_28_3
*787 FILLER_28_41
*788 FILLER_28_53
*789 FILLER_28_65
*790 FILLER_28_77
*791 FILLER_28_8
*792 FILLER_28_83
*793 FILLER_28_85
*794 FILLER_28_97
*795 FILLER_29_105
*796 FILLER_29_111
*797 FILLER_29_113
*798 FILLER_29_125
*799 FILLER_29_137
*800 FILLER_29_149
*801 FILLER_29_161
*802 FILLER_29_167
*803 FILLER_29_169
*804 FILLER_29_181
*805 FILLER_29_193
*806 FILLER_29_20
*807 FILLER_29_205
*808 FILLER_29_217
*809 FILLER_29_223
*810 FILLER_29_225
*811 FILLER_29_237
*812 FILLER_29_249
*813 FILLER_29_261
*814 FILLER_29_273
*815 FILLER_29_279
*816 FILLER_29_281
*817 FILLER_29_293
*818 FILLER_29_297
*819 FILLER_29_3
*820 FILLER_29_32
*821 FILLER_29_44
*822 FILLER_29_57
*823 FILLER_29_69
*824 FILLER_29_8
*825 FILLER_29_81
*826 FILLER_29_93
*827 FILLER_2_109
*828 FILLER_2_121
*829 FILLER_2_133
*830 FILLER_2_139
*831 FILLER_2_141
*832 FILLER_2_153
*833 FILLER_2_165
*834 FILLER_2_177
*835 FILLER_2_189
*836 FILLER_2_195
*837 FILLER_2_197
*838 FILLER_2_20
*839 FILLER_2_209
*840 FILLER_2_221
*841 FILLER_2_233
*842 FILLER_2_245
*843 FILLER_2_251
*844 FILLER_2_253
*845 FILLER_2_265
*846 FILLER_2_277
*847 FILLER_2_289
*848 FILLER_2_29
*849 FILLER_2_293
*850 FILLER_2_297
*851 FILLER_2_3
*852 FILLER_2_41
*853 FILLER_2_53
*854 FILLER_2_65
*855 FILLER_2_77
*856 FILLER_2_8
*857 FILLER_2_83
*858 FILLER_2_85
*859 FILLER_2_97
*860 FILLER_30_109
*861 FILLER_30_121
*862 FILLER_30_133
*863 FILLER_30_139
*864 FILLER_30_141
*865 FILLER_30_15
*866 FILLER_30_153
*867 FILLER_30_165
*868 FILLER_30_177
*869 FILLER_30_189
*870 FILLER_30_195
*871 FILLER_30_197
*872 FILLER_30_209
*873 FILLER_30_221
*874 FILLER_30_233
*875 FILLER_30_245
*876 FILLER_30_251
*877 FILLER_30_253
*878 FILLER_30_265
*879 FILLER_30_27
*880 FILLER_30_277
*881 FILLER_30_289
*882 FILLER_30_29
*883 FILLER_30_293
*884 FILLER_30_297
*885 FILLER_30_3
*886 FILLER_30_41
*887 FILLER_30_53
*888 FILLER_30_65
*889 FILLER_30_77
*890 FILLER_30_83
*891 FILLER_30_85
*892 FILLER_30_97
*893 FILLER_31_105
*894 FILLER_31_111
*895 FILLER_31_113
*896 FILLER_31_125
*897 FILLER_31_137
*898 FILLER_31_149
*899 FILLER_31_15
*900 FILLER_31_161
*901 FILLER_31_167
*902 FILLER_31_169
*903 FILLER_31_181
*904 FILLER_31_193
*905 FILLER_31_205
*906 FILLER_31_217
*907 FILLER_31_223
*908 FILLER_31_225
*909 FILLER_31_237
*910 FILLER_31_249
*911 FILLER_31_261
*912 FILLER_31_27
*913 FILLER_31_273
*914 FILLER_31_279
*915 FILLER_31_281
*916 FILLER_31_293
*917 FILLER_31_3
*918 FILLER_31_39
*919 FILLER_31_51
*920 FILLER_31_55
*921 FILLER_31_57
*922 FILLER_31_69
*923 FILLER_31_81
*924 FILLER_31_93
*925 FILLER_32_109
*926 FILLER_32_121
*927 FILLER_32_133
*928 FILLER_32_139
*929 FILLER_32_141
*930 FILLER_32_153
*931 FILLER_32_165
*932 FILLER_32_177
*933 FILLER_32_189
*934 FILLER_32_195
*935 FILLER_32_197
*936 FILLER_32_20
*937 FILLER_32_209
*938 FILLER_32_221
*939 FILLER_32_233
*940 FILLER_32_245
*941 FILLER_32_251
*942 FILLER_32_253
*943 FILLER_32_265
*944 FILLER_32_277
*945 FILLER_32_289
*946 FILLER_32_29
*947 FILLER_32_293
*948 FILLER_32_297
*949 FILLER_32_3
*950 FILLER_32_41
*951 FILLER_32_53
*952 FILLER_32_65
*953 FILLER_32_77
*954 FILLER_32_8
*955 FILLER_32_83
*956 FILLER_32_85
*957 FILLER_32_97
*958 FILLER_33_105
*959 FILLER_33_111
*960 FILLER_33_113
*961 FILLER_33_125
*962 FILLER_33_137
*963 FILLER_33_149
*964 FILLER_33_161
*965 FILLER_33_167
*966 FILLER_33_169
*967 FILLER_33_181
*968 FILLER_33_193
*969 FILLER_33_20
*970 FILLER_33_205
*971 FILLER_33_217
*972 FILLER_33_223
*973 FILLER_33_225
*974 FILLER_33_237
*975 FILLER_33_249
*976 FILLER_33_261
*977 FILLER_33_273
*978 FILLER_33_279
*979 FILLER_33_281
*980 FILLER_33_293
*981 FILLER_33_297
*982 FILLER_33_3
*983 FILLER_33_32
*984 FILLER_33_44
*985 FILLER_33_57
*986 FILLER_33_69
*987 FILLER_33_8
*988 FILLER_33_81
*989 FILLER_33_93
*990 FILLER_34_109
*991 FILLER_34_121
*992 FILLER_34_133
*993 FILLER_34_139
*994 FILLER_34_141
*995 FILLER_34_15
*996 FILLER_34_153
*997 FILLER_34_165
*998 FILLER_34_177
*999 FILLER_34_189
*1000 FILLER_34_195
*1001 FILLER_34_197
*1002 FILLER_34_209
*1003 FILLER_34_221
*1004 FILLER_34_233
*1005 FILLER_34_245
*1006 FILLER_34_251
*1007 FILLER_34_253
*1008 FILLER_34_265
*1009 FILLER_34_27
*1010 FILLER_34_277
*1011 FILLER_34_289
*1012 FILLER_34_29
*1013 FILLER_34_297
*1014 FILLER_34_3
*1015 FILLER_34_41
*1016 FILLER_34_53
*1017 FILLER_34_65
*1018 FILLER_34_77
*1019 FILLER_34_83
*1020 FILLER_34_85
*1021 FILLER_34_97
*1022 FILLER_35_105
*1023 FILLER_35_111
*1024 FILLER_35_113
*1025 FILLER_35_125
*1026 FILLER_35_137
*1027 FILLER_35_149
*1028 FILLER_35_161
*1029 FILLER_35_167
*1030 FILLER_35_169
*1031 FILLER_35_181
*1032 FILLER_35_193
*1033 FILLER_35_20
*1034 FILLER_35_205
*1035 FILLER_35_217
*1036 FILLER_35_223
*1037 FILLER_35_225
*1038 FILLER_35_237
*1039 FILLER_35_249
*1040 FILLER_35_261
*1041 FILLER_35_273
*1042 FILLER_35_279
*1043 FILLER_35_281
*1044 FILLER_35_293
*1045 FILLER_35_297
*1046 FILLER_35_3
*1047 FILLER_35_32
*1048 FILLER_35_44
*1049 FILLER_35_57
*1050 FILLER_35_69
*1051 FILLER_35_8
*1052 FILLER_35_81
*1053 FILLER_35_93
*1054 FILLER_36_109
*1055 FILLER_36_121
*1056 FILLER_36_133
*1057 FILLER_36_139
*1058 FILLER_36_141
*1059 FILLER_36_15
*1060 FILLER_36_153
*1061 FILLER_36_165
*1062 FILLER_36_177
*1063 FILLER_36_189
*1064 FILLER_36_195
*1065 FILLER_36_197
*1066 FILLER_36_209
*1067 FILLER_36_221
*1068 FILLER_36_233
*1069 FILLER_36_245
*1070 FILLER_36_251
*1071 FILLER_36_253
*1072 FILLER_36_265
*1073 FILLER_36_27
*1074 FILLER_36_277
*1075 FILLER_36_289
*1076 FILLER_36_29
*1077 FILLER_36_293
*1078 FILLER_36_297
*1079 FILLER_36_3
*1080 FILLER_36_41
*1081 FILLER_36_53
*1082 FILLER_36_65
*1083 FILLER_36_77
*1084 FILLER_36_83
*1085 FILLER_36_85
*1086 FILLER_36_97
*1087 FILLER_37_105
*1088 FILLER_37_111
*1089 FILLER_37_113
*1090 FILLER_37_125
*1091 FILLER_37_137
*1092 FILLER_37_149
*1093 FILLER_37_161
*1094 FILLER_37_167
*1095 FILLER_37_169
*1096 FILLER_37_181
*1097 FILLER_37_193
*1098 FILLER_37_20
*1099 FILLER_37_205
*1100 FILLER_37_217
*1101 FILLER_37_223
*1102 FILLER_37_225
*1103 FILLER_37_237
*1104 FILLER_37_249
*1105 FILLER_37_261
*1106 FILLER_37_273
*1107 FILLER_37_279
*1108 FILLER_37_281
*1109 FILLER_37_293
*1110 FILLER_37_3
*1111 FILLER_37_32
*1112 FILLER_37_44
*1113 FILLER_37_57
*1114 FILLER_37_69
*1115 FILLER_37_8
*1116 FILLER_37_81
*1117 FILLER_37_93
*1118 FILLER_38_109
*1119 FILLER_38_121
*1120 FILLER_38_133
*1121 FILLER_38_139
*1122 FILLER_38_141
*1123 FILLER_38_15
*1124 FILLER_38_153
*1125 FILLER_38_165
*1126 FILLER_38_177
*1127 FILLER_38_189
*1128 FILLER_38_195
*1129 FILLER_38_197
*1130 FILLER_38_209
*1131 FILLER_38_221
*1132 FILLER_38_233
*1133 FILLER_38_245
*1134 FILLER_38_251
*1135 FILLER_38_253
*1136 FILLER_38_265
*1137 FILLER_38_27
*1138 FILLER_38_277
*1139 FILLER_38_289
*1140 FILLER_38_29
*1141 FILLER_38_293
*1142 FILLER_38_297
*1143 FILLER_38_3
*1144 FILLER_38_41
*1145 FILLER_38_53
*1146 FILLER_38_65
*1147 FILLER_38_77
*1148 FILLER_38_83
*1149 FILLER_38_85
*1150 FILLER_38_97
*1151 FILLER_39_105
*1152 FILLER_39_111
*1153 FILLER_39_113
*1154 FILLER_39_125
*1155 FILLER_39_137
*1156 FILLER_39_149
*1157 FILLER_39_161
*1158 FILLER_39_167
*1159 FILLER_39_169
*1160 FILLER_39_181
*1161 FILLER_39_193
*1162 FILLER_39_20
*1163 FILLER_39_205
*1164 FILLER_39_217
*1165 FILLER_39_223
*1166 FILLER_39_225
*1167 FILLER_39_237
*1168 FILLER_39_249
*1169 FILLER_39_261
*1170 FILLER_39_273
*1171 FILLER_39_279
*1172 FILLER_39_281
*1173 FILLER_39_293
*1174 FILLER_39_297
*1175 FILLER_39_3
*1176 FILLER_39_32
*1177 FILLER_39_44
*1178 FILLER_39_57
*1179 FILLER_39_69
*1180 FILLER_39_8
*1181 FILLER_39_81
*1182 FILLER_39_93
*1183 FILLER_3_105
*1184 FILLER_3_111
*1185 FILLER_3_113
*1186 FILLER_3_125
*1187 FILLER_3_137
*1188 FILLER_3_149
*1189 FILLER_3_161
*1190 FILLER_3_167
*1191 FILLER_3_169
*1192 FILLER_3_181
*1193 FILLER_3_193
*1194 FILLER_3_20
*1195 FILLER_3_205
*1196 FILLER_3_217
*1197 FILLER_3_223
*1198 FILLER_3_225
*1199 FILLER_3_237
*1200 FILLER_3_249
*1201 FILLER_3_261
*1202 FILLER_3_273
*1203 FILLER_3_279
*1204 FILLER_3_281
*1205 FILLER_3_293
*1206 FILLER_3_297
*1207 FILLER_3_3
*1208 FILLER_3_32
*1209 FILLER_3_44
*1210 FILLER_3_57
*1211 FILLER_3_69
*1212 FILLER_3_8
*1213 FILLER_3_81
*1214 FILLER_3_93
*1215 FILLER_40_109
*1216 FILLER_40_121
*1217 FILLER_40_133
*1218 FILLER_40_139
*1219 FILLER_40_141
*1220 FILLER_40_153
*1221 FILLER_40_165
*1222 FILLER_40_177
*1223 FILLER_40_189
*1224 FILLER_40_195
*1225 FILLER_40_197
*1226 FILLER_40_20
*1227 FILLER_40_209
*1228 FILLER_40_221
*1229 FILLER_40_233
*1230 FILLER_40_245
*1231 FILLER_40_251
*1232 FILLER_40_253
*1233 FILLER_40_265
*1234 FILLER_40_277
*1235 FILLER_40_289
*1236 FILLER_40_29
*1237 FILLER_40_297
*1238 FILLER_40_3
*1239 FILLER_40_41
*1240 FILLER_40_53
*1241 FILLER_40_65
*1242 FILLER_40_77
*1243 FILLER_40_8
*1244 FILLER_40_83
*1245 FILLER_40_85
*1246 FILLER_40_97
*1247 FILLER_41_105
*1248 FILLER_41_111
*1249 FILLER_41_113
*1250 FILLER_41_125
*1251 FILLER_41_137
*1252 FILLER_41_149
*1253 FILLER_41_15
*1254 FILLER_41_161
*1255 FILLER_41_167
*1256 FILLER_41_169
*1257 FILLER_41_181
*1258 FILLER_41_193
*1259 FILLER_41_205
*1260 FILLER_41_217
*1261 FILLER_41_223
*1262 FILLER_41_225
*1263 FILLER_41_237
*1264 FILLER_41_249
*1265 FILLER_41_261
*1266 FILLER_41_27
*1267 FILLER_41_273
*1268 FILLER_41_279
*1269 FILLER_41_281
*1270 FILLER_41_293
*1271 FILLER_41_297
*1272 FILLER_41_3
*1273 FILLER_41_39
*1274 FILLER_41_51
*1275 FILLER_41_55
*1276 FILLER_41_57
*1277 FILLER_41_69
*1278 FILLER_41_81
*1279 FILLER_41_93
*1280 FILLER_42_109
*1281 FILLER_42_121
*1282 FILLER_42_133
*1283 FILLER_42_139
*1284 FILLER_42_141
*1285 FILLER_42_15
*1286 FILLER_42_153
*1287 FILLER_42_165
*1288 FILLER_42_177
*1289 FILLER_42_189
*1290 FILLER_42_195
*1291 FILLER_42_197
*1292 FILLER_42_209
*1293 FILLER_42_221
*1294 FILLER_42_233
*1295 FILLER_42_245
*1296 FILLER_42_251
*1297 FILLER_42_253
*1298 FILLER_42_265
*1299 FILLER_42_27
*1300 FILLER_42_277
*1301 FILLER_42_289
*1302 FILLER_42_29
*1303 FILLER_42_293
*1304 FILLER_42_297
*1305 FILLER_42_3
*1306 FILLER_42_41
*1307 FILLER_42_53
*1308 FILLER_42_65
*1309 FILLER_42_77
*1310 FILLER_42_83
*1311 FILLER_42_85
*1312 FILLER_42_97
*1313 FILLER_43_105
*1314 FILLER_43_111
*1315 FILLER_43_113
*1316 FILLER_43_125
*1317 FILLER_43_137
*1318 FILLER_43_149
*1319 FILLER_43_161
*1320 FILLER_43_167
*1321 FILLER_43_169
*1322 FILLER_43_181
*1323 FILLER_43_193
*1324 FILLER_43_20
*1325 FILLER_43_205
*1326 FILLER_43_217
*1327 FILLER_43_223
*1328 FILLER_43_225
*1329 FILLER_43_237
*1330 FILLER_43_249
*1331 FILLER_43_261
*1332 FILLER_43_273
*1333 FILLER_43_279
*1334 FILLER_43_281
*1335 FILLER_43_293
*1336 FILLER_43_3
*1337 FILLER_43_32
*1338 FILLER_43_44
*1339 FILLER_43_57
*1340 FILLER_43_69
*1341 FILLER_43_8
*1342 FILLER_43_81
*1343 FILLER_43_93
*1344 FILLER_44_109
*1345 FILLER_44_121
*1346 FILLER_44_133
*1347 FILLER_44_139
*1348 FILLER_44_141
*1349 FILLER_44_153
*1350 FILLER_44_165
*1351 FILLER_44_177
*1352 FILLER_44_189
*1353 FILLER_44_195
*1354 FILLER_44_197
*1355 FILLER_44_20
*1356 FILLER_44_209
*1357 FILLER_44_221
*1358 FILLER_44_233
*1359 FILLER_44_245
*1360 FILLER_44_251
*1361 FILLER_44_253
*1362 FILLER_44_265
*1363 FILLER_44_277
*1364 FILLER_44_289
*1365 FILLER_44_29
*1366 FILLER_44_293
*1367 FILLER_44_297
*1368 FILLER_44_3
*1369 FILLER_44_41
*1370 FILLER_44_53
*1371 FILLER_44_65
*1372 FILLER_44_77
*1373 FILLER_44_8
*1374 FILLER_44_83
*1375 FILLER_44_85
*1376 FILLER_44_97
*1377 FILLER_45_105
*1378 FILLER_45_111
*1379 FILLER_45_113
*1380 FILLER_45_125
*1381 FILLER_45_137
*1382 FILLER_45_149
*1383 FILLER_45_161
*1384 FILLER_45_167
*1385 FILLER_45_169
*1386 FILLER_45_181
*1387 FILLER_45_193
*1388 FILLER_45_20
*1389 FILLER_45_205
*1390 FILLER_45_217
*1391 FILLER_45_223
*1392 FILLER_45_225
*1393 FILLER_45_237
*1394 FILLER_45_249
*1395 FILLER_45_261
*1396 FILLER_45_273
*1397 FILLER_45_279
*1398 FILLER_45_281
*1399 FILLER_45_293
*1400 FILLER_45_297
*1401 FILLER_45_3
*1402 FILLER_45_32
*1403 FILLER_45_44
*1404 FILLER_45_57
*1405 FILLER_45_69
*1406 FILLER_45_8
*1407 FILLER_45_81
*1408 FILLER_45_93
*1409 FILLER_46_10
*1410 FILLER_46_106
*1411 FILLER_46_113
*1412 FILLER_46_118
*1413 FILLER_46_130
*1414 FILLER_46_138
*1415 FILLER_46_141
*1416 FILLER_46_146
*1417 FILLER_46_150
*1418 FILLER_46_154
*1419 FILLER_46_166
*1420 FILLER_46_169
*1421 FILLER_46_17
*1422 FILLER_46_178
*1423 FILLER_46_186
*1424 FILLER_46_190
*1425 FILLER_46_197
*1426 FILLER_46_209
*1427 FILLER_46_214
*1428 FILLER_46_222
*1429 FILLER_46_225
*1430 FILLER_46_230
*1431 FILLER_46_24
*1432 FILLER_46_242
*1433 FILLER_46_246
*1434 FILLER_46_250
*1435 FILLER_46_253
*1436 FILLER_46_262
*1437 FILLER_46_274
*1438 FILLER_46_281
*1439 FILLER_46_286
*1440 FILLER_46_29
*1441 FILLER_46_297
*1442 FILLER_46_3
*1443 FILLER_46_34
*1444 FILLER_46_42
*1445 FILLER_46_46
*1446 FILLER_46_54
*1447 FILLER_46_57
*1448 FILLER_46_65
*1449 FILLER_46_70
*1450 FILLER_46_78
*1451 FILLER_46_82
*1452 FILLER_46_85
*1453 FILLER_46_97
*1454 FILLER_4_109
*1455 FILLER_4_121
*1456 FILLER_4_133
*1457 FILLER_4_139
*1458 FILLER_4_141
*1459 FILLER_4_15
*1460 FILLER_4_153
*1461 FILLER_4_165
*1462 FILLER_4_177
*1463 FILLER_4_189
*1464 FILLER_4_195
*1465 FILLER_4_197
*1466 FILLER_4_209
*1467 FILLER_4_221
*1468 FILLER_4_233
*1469 FILLER_4_245
*1470 FILLER_4_251
*1471 FILLER_4_253
*1472 FILLER_4_265
*1473 FILLER_4_27
*1474 FILLER_4_277
*1475 FILLER_4_289
*1476 FILLER_4_29
*1477 FILLER_4_297
*1478 FILLER_4_3
*1479 FILLER_4_41
*1480 FILLER_4_53
*1481 FILLER_4_65
*1482 FILLER_4_77
*1483 FILLER_4_83
*1484 FILLER_4_85
*1485 FILLER_4_97
*1486 FILLER_5_105
*1487 FILLER_5_111
*1488 FILLER_5_113
*1489 FILLER_5_125
*1490 FILLER_5_137
*1491 FILLER_5_149
*1492 FILLER_5_161
*1493 FILLER_5_167
*1494 FILLER_5_169
*1495 FILLER_5_181
*1496 FILLER_5_193
*1497 FILLER_5_20
*1498 FILLER_5_205
*1499 FILLER_5_217
*1500 FILLER_5_223
*1501 FILLER_5_225
*1502 FILLER_5_237
*1503 FILLER_5_249
*1504 FILLER_5_261
*1505 FILLER_5_273
*1506 FILLER_5_279
*1507 FILLER_5_281
*1508 FILLER_5_293
*1509 FILLER_5_297
*1510 FILLER_5_3
*1511 FILLER_5_32
*1512 FILLER_5_44
*1513 FILLER_5_57
*1514 FILLER_5_69
*1515 FILLER_5_8
*1516 FILLER_5_81
*1517 FILLER_5_93
*1518 FILLER_6_109
*1519 FILLER_6_121
*1520 FILLER_6_133
*1521 FILLER_6_139
*1522 FILLER_6_141
*1523 FILLER_6_15
*1524 FILLER_6_153
*1525 FILLER_6_165
*1526 FILLER_6_177
*1527 FILLER_6_189
*1528 FILLER_6_195
*1529 FILLER_6_197
*1530 FILLER_6_209
*1531 FILLER_6_221
*1532 FILLER_6_233
*1533 FILLER_6_245
*1534 FILLER_6_251
*1535 FILLER_6_253
*1536 FILLER_6_265
*1537 FILLER_6_27
*1538 FILLER_6_277
*1539 FILLER_6_289
*1540 FILLER_6_29
*1541 FILLER_6_293
*1542 FILLER_6_297
*1543 FILLER_6_3
*1544 FILLER_6_41
*1545 FILLER_6_53
*1546 FILLER_6_65
*1547 FILLER_6_77
*1548 FILLER_6_83
*1549 FILLER_6_85
*1550 FILLER_6_97
*1551 FILLER_7_105
*1552 FILLER_7_111
*1553 FILLER_7_113
*1554 FILLER_7_125
*1555 FILLER_7_137
*1556 FILLER_7_149
*1557 FILLER_7_161
*1558 FILLER_7_167
*1559 FILLER_7_169
*1560 FILLER_7_181
*1561 FILLER_7_193
*1562 FILLER_7_20
*1563 FILLER_7_205
*1564 FILLER_7_217
*1565 FILLER_7_223
*1566 FILLER_7_225
*1567 FILLER_7_237
*1568 FILLER_7_249
*1569 FILLER_7_261
*1570 FILLER_7_273
*1571 FILLER_7_279
*1572 FILLER_7_281
*1573 FILLER_7_293
*1574 FILLER_7_3
*1575 FILLER_7_32
*1576 FILLER_7_44
*1577 FILLER_7_57
*1578 FILLER_7_69
*1579 FILLER_7_8
*1580 FILLER_7_81
*1581 FILLER_7_93
*1582 FILLER_8_109
*1583 FILLER_8_121
*1584 FILLER_8_133
*1585 FILLER_8_139
*1586 FILLER_8_141
*1587 FILLER_8_15
*1588 FILLER_8_153
*1589 FILLER_8_165
*1590 FILLER_8_177
*1591 FILLER_8_189
*1592 FILLER_8_195
*1593 FILLER_8_197
*1594 FILLER_8_209
*1595 FILLER_8_221
*1596 FILLER_8_233
*1597 FILLER_8_245
*1598 FILLER_8_251
*1599 FILLER_8_253
*1600 FILLER_8_265
*1601 FILLER_8_27
*1602 FILLER_8_277
*1603 FILLER_8_289
*1604 FILLER_8_29
*1605 FILLER_8_293
*1606 FILLER_8_297
*1607 FILLER_8_3
*1608 FILLER_8_41
*1609 FILLER_8_53
*1610 FILLER_8_65
*1611 FILLER_8_77
*1612 FILLER_8_83
*1613 FILLER_8_85
*1614 FILLER_8_97
*1615 FILLER_9_105
*1616 FILLER_9_111
*1617 FILLER_9_113
*1618 FILLER_9_125
*1619 FILLER_9_137
*1620 FILLER_9_149
*1621 FILLER_9_161